
This summary information was generated by ElastoDyn on 01-Mar-2023 at 16:49:44.


Turbine features:

            Upwind, 3-bladed rotor with rigid hub.
            The model has 22 of 24 DOFs active (enabled) at start-up.
 Enabled    Platform horizontal surge translation DOF 
 Enabled    Platform horizontal sway translation DOF 
 Enabled    Platform vertical heave translation DOF 
 Enabled    Platform roll tilt rotation DOF 
 Enabled    Platform pitch tilt rotation DOF 
 Enabled    Platform yaw rotation DOF 
 Enabled    1st tower fore-aft bending mode DOF 
 Enabled    1st tower side-to-side bending mode DOF 
 Enabled    2nd tower fore-aft bending mode DOF 
 Enabled    2nd tower side-to-side bending mode DOF 
 Enabled    Nacelle yaw DOF 
 Disabled   Rotor-furl DOF 
 Enabled    Variable speed generator DOF 
 Enabled    Drivetrain rotational-flexibility DOF 
 Disabled   Tail-furl DOF 
 Enabled    1st flapwise bending-mode DOF of blade 1 
 Enabled    1st edgewise bending-mode DOF of blade 1 
 Enabled    2nd flapwise bending-mode DOF of blade 1 
 Enabled    1st flapwise bending-mode DOF of blade 2 
 Enabled    1st edgewise bending-mode DOF of blade 2 
 Enabled    2nd flapwise bending-mode DOF of blade 2 
 Enabled    1st flapwise bending-mode DOF of blade 3 
 Enabled    1st edgewise bending-mode DOF of blade 3 
 Enabled    2nd flapwise bending-mode DOF of blade 3 


Time steps:

    Structural            (s)        0.01250000


Some calculated parameters:

    Hub-Height            (m)             1.267
    Flexible Tower Length (m)             1.000
    Flexible Blade Length (m)             0.580


Rotor mass properties:

    Rotor Mass            (kg)        57276.160
    Rotor Inertia         (kg-m^2)   115961.812
                                        Blade 1      Blade 2      Blade 3
                                        -------      -------      -------
    Mass                  (kg)          165.386      165.386      165.386
    Second Mass Moment    (kg-m^2)        9.858        9.858        9.858
    First Mass Moment     (kg-m)         32.209       32.209       32.209
    Center of Mass        (m)             0.195        0.195        0.195


Additional mass properties:

    Tower-top Mass        (kg)       297276.156
    Tower Mass            (kg)         3218.016
    Platform Mass         (kg)      3852180.000
    Mass Incl. Platform   (kg)      4152674.250


Interpolated tower properties:

Node  TwFract   HNodes  DHNodes  TMassDen    FAStiff    SSStiff
 (-)      (-)      (m)      (m)    (kg/m)     (Nm^2)     (Nm^2)
   1    0.025    0.025    0.050  4586.570  5.823E+11  5.823E+11
   2    0.075    0.075    0.050  4425.710  5.392E+11  5.392E+11
   3    0.125    0.125    0.050  4267.650  4.985E+11  4.985E+11
   4    0.175    0.175    0.050  4112.390  4.601E+11  4.601E+11
   5    0.225    0.225    0.050  3959.930  4.239E+11  4.239E+11
   6    0.275    0.275    0.050  3810.270  3.900E+11  3.900E+11
   7    0.325    0.325    0.050  3663.410  3.581E+11  3.581E+11
   8    0.375    0.375    0.050  3519.350  3.282E+11  3.282E+11
   9    0.425    0.425    0.050  3378.090  3.002E+11  3.002E+11
  10    0.475    0.475    0.050  3239.630  2.740E+11  2.740E+11
  11    0.525    0.525    0.050  3103.972  2.495E+11  2.495E+11
  12    0.575    0.575    0.050  2971.117  2.267E+11  2.267E+11
  13    0.625    0.625    0.050  2841.062  2.055E+11  2.055E+11
  14    0.675    0.675    0.050  2713.807  1.859E+11  1.859E+11
  15    0.725    0.725    0.050  2589.355  1.676E+11  1.676E+11
  16    0.775    0.775    0.050  2467.705  1.507E+11  1.507E+11
  17    0.825    0.825    0.050  2348.852  1.351E+11  1.351E+11
  18    0.875    0.875    0.050  2232.797  1.208E+11  1.208E+11
  19    0.925    0.925    0.050  2119.545  1.076E+11  1.076E+11
  20    0.975    0.975    0.050  2009.095  9.552E+10  9.552E+10


Interpolated blade 1 properties:

Node  BlFract   RNodes  DRNodes PitchAxis  StrcTwst  BMassDen    FlpStff    EdgStff
 (-)      (-)      (m)      (m)       (-)     (deg)    (kg/m)     (Nm^2)     (Nm^2)
   1    0.029    0.047    0.034     0.253    13.308   787.554  1.823E+10  1.952E+10
   2    0.088    0.081    0.034     0.294    13.308   464.487  7.021E+09  9.977E+09
   3    0.147    0.115    0.034     0.339    13.308   414.917  4.944E+09  6.990E+09
   4    0.206    0.149    0.034     0.375    12.545   412.664  3.178E+09  6.695E+09
   5    0.265    0.184    0.034     0.375    10.770   361.957  2.263E+09  4.796E+09
   6    0.324    0.218    0.034     0.375     9.757   346.452  1.862E+09  4.283E+09
   7    0.382    0.252    0.034     0.375     8.731   330.982  1.440E+09  3.835E+09
   8    0.441    0.286    0.034     0.375     7.647   304.395  9.968E+08  3.304E+09
   9    0.500    0.320    0.034     0.375     6.549   272.375  6.410E+08  2.685E+09
  10    0.559    0.354    0.034     0.375     5.498   250.787  4.010E+08  2.292E+09
  11    0.618    0.388    0.034     0.375     4.462   211.668  2.468E+08  1.610E+09
  12    0.676    0.422    0.034     0.375     3.482   177.049  1.409E+08  1.225E+09
  13    0.735    0.456    0.034     0.375     2.693   153.160  9.890E+07  9.067E+08
  14    0.794    0.491    0.034     0.375     1.993   128.005  7.145E+07  6.486E+08
  15    0.853    0.525    0.034     0.375     1.292   102.116  4.819E+07  4.472E+08
  16    0.912    0.559    0.034     0.375     0.598    77.547  3.095E+07  3.109E+08
  17    0.971    0.593    0.034     0.375     0.141    51.403  1.013E+07  1.019E+08


Interpolated blade 2 properties:

Node  BlFract   RNodes  DRNodes PitchAxis  StrcTwst  BMassDen    FlpStff    EdgStff
 (-)      (-)      (m)      (m)       (-)     (deg)    (kg/m)     (Nm^2)     (Nm^2)
   1    0.029    0.047    0.034     0.253    13.308   787.554  1.823E+10  1.952E+10
   2    0.088    0.081    0.034     0.294    13.308   464.487  7.021E+09  9.977E+09
   3    0.147    0.115    0.034     0.339    13.308   414.917  4.944E+09  6.990E+09
   4    0.206    0.149    0.034     0.375    12.545   412.664  3.178E+09  6.695E+09
   5    0.265    0.184    0.034     0.375    10.770   361.957  2.263E+09  4.796E+09
   6    0.324    0.218    0.034     0.375     9.757   346.452  1.862E+09  4.283E+09
   7    0.382    0.252    0.034     0.375     8.731   330.982  1.440E+09  3.835E+09
   8    0.441    0.286    0.034     0.375     7.647   304.395  9.968E+08  3.304E+09
   9    0.500    0.320    0.034     0.375     6.549   272.375  6.410E+08  2.685E+09
  10    0.559    0.354    0.034     0.375     5.498   250.787  4.010E+08  2.292E+09
  11    0.618    0.388    0.034     0.375     4.462   211.668  2.468E+08  1.610E+09
  12    0.676    0.422    0.034     0.375     3.482   177.049  1.409E+08  1.225E+09
  13    0.735    0.456    0.034     0.375     2.693   153.160  9.890E+07  9.067E+08
  14    0.794    0.491    0.034     0.375     1.993   128.005  7.145E+07  6.486E+08
  15    0.853    0.525    0.034     0.375     1.292   102.116  4.819E+07  4.472E+08
  16    0.912    0.559    0.034     0.375     0.598    77.547  3.095E+07  3.109E+08
  17    0.971    0.593    0.034     0.375     0.141    51.403  1.013E+07  1.019E+08


Interpolated blade 3 properties:

Node  BlFract   RNodes  DRNodes PitchAxis  StrcTwst  BMassDen    FlpStff    EdgStff
 (-)      (-)      (m)      (m)       (-)     (deg)    (kg/m)     (Nm^2)     (Nm^2)
   1    0.029    0.047    0.034     0.253    13.308   787.554  1.823E+10  1.952E+10
   2    0.088    0.081    0.034     0.294    13.308   464.487  7.021E+09  9.977E+09
   3    0.147    0.115    0.034     0.339    13.308   414.917  4.944E+09  6.990E+09
   4    0.206    0.149    0.034     0.375    12.545   412.664  3.178E+09  6.695E+09
   5    0.265    0.184    0.034     0.375    10.770   361.957  2.263E+09  4.796E+09
   6    0.324    0.218    0.034     0.375     9.757   346.452  1.862E+09  4.283E+09
   7    0.382    0.252    0.034     0.375     8.731   330.982  1.440E+09  3.835E+09
   8    0.441    0.286    0.034     0.375     7.647   304.395  9.968E+08  3.304E+09
   9    0.500    0.320    0.034     0.375     6.549   272.375  6.410E+08  2.685E+09
  10    0.559    0.354    0.034     0.375     5.498   250.787  4.010E+08  2.292E+09
  11    0.618    0.388    0.034     0.375     4.462   211.668  2.468E+08  1.610E+09
  12    0.676    0.422    0.034     0.375     3.482   177.049  1.409E+08  1.225E+09
  13    0.735    0.456    0.034     0.375     2.693   153.160  9.890E+07  9.067E+08
  14    0.794    0.491    0.034     0.375     1.993   128.005  7.145E+07  6.486E+08
  15    0.853    0.525    0.034     0.375     1.292   102.116  4.819E+07  4.472E+08
  16    0.912    0.559    0.034     0.375     0.598    77.547  3.095E+07  3.109E+08
  17    0.971    0.593    0.034     0.375     0.141    51.403  1.013E+07  1.019E+08


Requested Outputs:


 Col   Parameter            Units               
 ---   ---------------      ---------------     
   0   Time                 (s)                 
   1   Azimuth              (deg)               
   2   RotSpeed             (rpm)               
   3   GenSpeed             (rpm)               
   4   OoPDefl1             (m)                 
   5   IPDefl1              (m)                 
   6   TwstDefl1            (deg)               
   7   BldPitch1            (deg)               
   8   TTDspFA              (m)                 
   9   TTDspSS              (m)                 
  10   TTDspTwst            (deg)               
  11   PtfmSurge            (m)                 
  12   PtfmSway             (m)                 
  13   PtfmHeave            (m)                 
  14   PtfmRoll             (deg)               
  15   PtfmPitch            (deg)               
  16   PtfmYaw              (deg)               
  17   RootFxc1             (kN)                
  18   RootFyc1             (kN)                
  19   RootFzc1             (kN)                
  20   RootMxc1             (kN-m)              
  21   RootMyc1             (kN-m)              
  22   RootMzc1             (kN-m)              
  23   RotTorq              (kN-m)              
  24   LSSGagMya            (kN-m)              
  25   LSSGagMza            (kN-m)              
  26   YawBrFxp             (kN)                
  27   YawBrFyp             (kN)                
  28   YawBrFzp             (kN)                
  29   YawBrMxp             (kN-m)              
  30   YawBrMyp             (kN-m)              
  31   YawBrMzp             (kN-m)              
  32   TwrBsFxt             (kN)                
  33   TwrBsFyt             (kN)                
  34   TwrBsFzt             (kN)                
  35   TwrBsMxt             (kN-m)              
  36   TwrBsMyt             (kN-m)              
  37   TwrBsMzt             (kN-m)              


  Requested Output Channels at each blade station:
 Col   Parameter            Units               
 ---   ---------------      ---------------     
